[Format]      =  4.0
[Frequency]   =  0
[Precision]   =  1e-008
[MinAngle]    =  15
[DoSmartMesh] =  1
[Depth]       =  15
[LengthUnits] =  centimeters
[ProblemType] =  planar
[Coordinates] =  cartesian
[ACSolver]    =  0
[PrevType]    =  0
[PrevSoln]    =  ""
[Comment]     =  "Add comments here."
[PointProps]   = 0
[BdryProps]   = 0
[BlockProps]  = 4
  <BeginBlock>
    <BlockName> = "Air"
    <Mu_x> = 1
    <Mu_y> = 1
    <H_c> = 0
    <H_cAngle> = 0
    <J_re> = 0
    <J_im> = 0
    <Sigma> = 0
    <d_lam> = 0
    <Phi_h> = 0
    <Phi_hx> = 0
    <Phi_hy> = 0
    <LamType> = 0
    <LamFill> = 1
    <NStrands> = 0
    <WireD> = 0
    <BHPoints> = 0
  <EndBlock>
  <BeginBlock>
    <BlockName> = "14 AWG"
    <Mu_x> = 1
    <Mu_y> = 1
    <H_c> = 0
    <H_cAngle> = 0
    <J_re> = 0
    <J_im> = 0
    <Sigma> = 58
    <d_lam> = 0
    <Phi_h> = 0
    <Phi_hx> = 0
    <Phi_hy> = 0
    <LamType> = 3
    <LamFill> = 1
    <NStrands> = 1
    <WireD> = 1.62813422596841
    <BHPoints> = 0
  <EndBlock>
  <BeginBlock>
    <BlockName> = "M-15 Steel"
    <Mu_x> = 1
    <Mu_y> = 1
    <H_c> = 0
    <H_cAngle> = 0
    <J_re> = 0
    <J_im> = 0
    <Sigma> = 1.8999999999999999
    <d_lam> = 0.63500000000000001
    <Phi_h> = 0
    <Phi_hx> = 0
    <Phi_hy> = 0
    <LamType> = 0
    <LamFill> = 0.97999999999999998
    <NStrands> = 0
    <WireD> = 0
    <BHPoints> = 47
      0	0
      0.050000000000000003	15.120714
      0.10000000000000001	22.718292000000002
      0.14999999999999999	27.842732999999999
      0.20000000000000001	31.871434000000001
      0.25	35.365043999999997
      0.29999999999999999	38.600588000000002
      0.34999999999999998	41.736201999999999
      0.40000000000000002	44.873978999999999
      0.45000000000000001	48.087806999999998
      0.5	51.437235999999999
      0.55000000000000004	54.975220999999998
      0.59999999999999998	58.752992999999996
      0.65000000000000002	62.823644000000002
      0.69999999999999996	67.245284999999996
      0.75	72.084406000000001
      0.80000000000000004	77.420100000000005
      0.84999999999999998	83.350020999999998
      0.90000000000000002	89.999611999999999
      0.94999999999999996	97.537352999999996
      1	106.20140600000001
      1.05	116.34846400000001
      1.1000000000000001	128.54732899999999
      1.1499999999999999	143.76543100000001
      1.2	163.75416899999999
      1.25	191.86815799999999
      1.3	234.833507
      1.3500000000000001	306.50976900000001
      1.3999999999999999	435.255202
      1.45	674.911968
      1.5	1108.3255690000001
      1.55	1813.085468
      1.6000000000000001	2801.2174209999998
      1.6499999999999999	4053.6531169999998
      1.7	5591.10689
      1.75	7448.318413
      1.8	9708.81567
      1.8500000000000001	12486.931615
      1.8999999999999999	16041.483644
      1.95	21249.420623999998
      2	31313.495878000002
      2.0499999999999998	53589.446877000002
      2.1000000000000001	88477.484601000004
      2.1499999999999999	124329.41054
      2.2000000000000002	159968.5693
      2.25	197751.604272
      2.2999999999999998	234024.75134700001
  <EndBlock>
  <BeginBlock>
    <BlockName> = "M-36 Steel"
    <Mu_x> = 1616
    <Mu_y> = 1616
    <H_c> = 0
    <H_cAngle> = 0
    <J_re> = 0
    <J_im> = 0
    <Sigma> = 2
    <d_lam> = 0.63500000000000001
    <Phi_h> = 0
    <Phi_hx> = 0
    <Phi_hy> = 0
    <LamType> = 0
    <LamFill> = 0.97999999999999998
    <NStrands> = 0
    <WireD> = 0
    <BHPoints> = 47
      0	0
      0.050000000000000003	19.398586000000002
      0.10000000000000001	29.611086
      0.14999999999999999	36.311286000000003
      0.20000000000000001	41.398969999999998
      0.25	45.654680999999997
      0.29999999999999999	49.463585000000002
      0.34999999999999998	53.042856999999998
      0.40000000000000002	56.529325
      0.45000000000000001	60.018492000000002
      0.5	63.584023999999999
      0.55000000000000004	67.288555000000002
      0.59999999999999998	71.190393999999998
      0.65000000000000002	75.348315999999997
      0.69999999999999996	79.825601000000006
      0.75	84.694101000000003
      0.80000000000000004	90.039004000000006
      0.84999999999999998	95.965085000000002
      0.90000000000000002	102.60559499999999
      0.94999999999999996	110.135639
      1	118.793308
      1.05	128.91455500000001
      1.1000000000000001	140.99328499999999
      1.1499999999999999	155.78958700000001
      1.2	174.53384
      1.25	199.32994600000001
      1.3	233.989035
      1.3500000000000001	285.82186100000001
      1.3999999999999999	369.57162599999998
      1.45	515.788276
      1.5	785.78510400000005
      1.55	1282.7937979999999
      1.6000000000000001	2108.172454
      1.6499999999999999	3257.880122
      1.7	4726.4426309999999
      1.75	6512.0094010000003
      1.8	8720.2655529999993
      1.8500000000000001	11459.429228999999
      1.8999999999999999	14887.904936999999
      1.95	19350.577347999999
      2	26042.602019000002
      2.0499999999999998	39200.400310999998
      2.1000000000000001	65518.130312000001
      2.1499999999999999	100476.654669
      2.2000000000000002	136976.920182
      2.25	176029.81784199999
      2.2999999999999998	215228.81031199999
  <EndBlock>
[CircuitProps]  = 3
  <BeginCircuit>
    <CircuitName> = "BobinaEstatorA"
    <TotalAmps_re> = 5
    <TotalAmps_im> = 0
    <CircuitType> = 1
  <EndCircuit>
  <BeginCircuit>
    <CircuitName> = "BobinaEstatorB"
    <TotalAmps_re> = 0
    <TotalAmps_im> = 0
    <CircuitType> = 1
  <EndCircuit>
  <BeginCircuit>
    <CircuitName> = "BobinaEstatorC"
    <TotalAmps_re> = 0
    <TotalAmps_im> = 0
    <CircuitType> = 1
  <EndCircuit>
[NumPoints] = 492
10.05285087645187	0.97989247156052206	0	4
10.2303008803833	1.24637229463299	0	4
10.070282025001401	0.78065353194217291	0	4
10.291309900306659	0.54903600596876823	0	4
11.98484088706263	0.69720076863978719	0	4
11.92383186713927	1.394537057304009	0	4
10.334278137329861	1.2052781340031691	0	4
10.38657158297845	0.60756131514812117	0	4
11.880863630116069	0.73829492926960838	0	4
11.82857018446748	1.3360117481246561	0	4
9.7299689410093375	2.7106649381643662	0	4
9.8584493449915218	3.0039102037571381	0	4
9.781732750029839	2.5174797729065519	0	4
10.03962267656329	2.32776212535479	0	4
11.6816965812547	2.7677545020290748	0	4
11.50052324968294	3.4439025804314221	0	0
9.9679828798755548	2.9814958169529371	0	4
10.123274306937059	2.4019403211794952	0	4
11.572163046370671	2.7901688888332759	0	4
11.416871619309161	3.3697243846067169	0	4
9.1114468228960934	4.3590752222847291	0	4
9.1870538148682517	4.6701758213920321	0	4
9.1959704752442342	4.1778136648773989	0	4
9.4828865980867398	4.0357603704663756	0	4
11.02360983604904	4.7542114154255657	0	4
10.727777052830559	5.3886268663512196	0	4
9.2988155066589506	4.6671222582142704	0	4
9.5523864637033729	4.1233375859922798	0	4
10.911848144258339	4.7572649786033283	0	4
10.658277187213921	5.3010496508253189	0	4
8.2160780036837124	5.8750372115744636	0	4
8.2365143034537489	6.194540509916922	0	4
8.3307932909539222	5.7112068027166654	0	4
8.6380178088994839	5.6211340789146274	0	4
10.03057628419077	6.5962140207114048	0	4
9.6290727787450354	7.1696204517136994	0	4
8.3471083297002018	6.2109405513375773	0	4
8.6912541915108292	5.7194493247641809	0	4
9.9199822579443175	6.5798139792907504	0	4
9.5758363961336883	7.0713052058641459	0	4
7.0710678118654764	7.212489168102783	0	4
7.0357124728061482	7.5306872196367296	0	4
7.2124891681027847	7.0710678118654737	0	4
7.5306872196367314	7.0357124728061482	0	4
8.7327687476538625	8.2377940008232784	0	4
8.4852813742385713	8.4852813742385713	0	4
8.2377940008232802	8.7327687476538607	0	4
7.1417784899841301	7.5660425586960578	0	4
7.353910524340094	7.353910524340094	0	4
7.5660425586960587	7.1417784899841292	0	4
8.6267027304758805	8.2024386617639511	0	4
8.4145706961199167	8.4145706961199167	0	4
8.2024386617639529	8.6267027304758788	0	4
5.7112068027166671	8.3307932909539222	0	4
5.6211340789146274	8.6380178088994821	0	4
5.8750372115744653	8.2160780036837124	0	4
6.1945405099169228	8.2365143034537489	0	4
7.1696204517137012	9.6290727787450354	0	4
6.5962140207114066	10.03057628419077	0	4
5.7194493247641844	8.6912541915108292	0	4
6.2109405513375773	8.3471083297002	0	4
7.0713052058641459	9.5758363961336883	0	4
6.5798139792907522	9.9199822579443158	0	4
4.1778136648773998	9.1959704752442342	0	4
4.0357603704663774	9.4828865980867398	0	4
4.3590752222847309	9.1114468228960934	0	4
4.6701758213920339	9.1870538148682481	0	4
5.3886268663512231	10.727777052830559	0	4
4.7542114154255666	11.023609836049051	0	4
4.1233375859922798	9.5523864637033693	0	4
4.6671222582142713	9.2988155066589488	0	4
5.3010496508253198	10.658277187213921	0	4
4.7572649786033292	10.911848144258339	0	4
2.5174797729065541	9.7817327500298408	0	4
2.3277621253547909	10.03962267656329	0	4
2.7106649381643679	9.7299689410093357	0	4
3.003910203757139	9.8584493449915218	0	4
3.4439025804314238	11.50052324968294	0	4
2.7677545020290761	11.6816965812547	0	4
2.401940321179497	10.12327430693707	0	4
2.981495816952938	9.967982879875553	0	4
3.36972438460672	11.416871619309161	0	4
2.7901688888332781	11.572163046370671	0	4
0.78065353194217368	10.07028202500139	0	4
0.54903600596876934	10.291309900306659	0	4
0.97989247156052295	10.05285087645187	0	4
1.2463722946329909	10.2303008803833	0	4
1.3945370573040099	11.92383186713927	0	4
0.6972007686397883	11.98484088706263	0	4
0.60756131514812228	10.38657158297845	0	4
1.20527813400317	10.334278137329861	0	4
1.3360117481246561	11.82857018446748	0	4
0.73829492926960949	11.880863630116069	0	4
-0.97989247156052139	10.05285087645187	0	4
-1.2463722946329889	10.2303008803833	0	4
-0.78065353194217235	10.070282025001401	0	4
-0.54903600596876756	10.291309900306659	0	4
-0.69720076863978653	11.98484088706263	0	4
-1.3945370573040079	11.92383186713927	0	4
-1.205278134003168	10.334278137329861	0	4
-0.60756131514812062	10.38657158297845	0	4
-0.73829492926960771	11.880863630116069	0	4
-1.336011748124655	11.82857018446748	0	4
-2.7106649381643662	9.7299689410093375	0	4
-3.0039102037571368	9.8584493449915218	0	4
-2.5174797729065519	9.781732750029839	0	4
-2.32776212535479	10.03962267656329	0	4
-2.7677545020290748	11.6816965812547	0	4
-3.4439025804314221	11.50052324968294	0	4
-2.9814958169529362	9.9679828798755548	0	4
-2.4019403211794952	10.123274306937059	0	4
-2.7901688888332759	11.572163046370671	0	4
-3.3697243846067169	11.416871619309161	0	4
-4.3590752222847291	9.1114468228960934	0	4
-4.6701758213920321	9.1870538148682517	0	4
-4.1778136648773989	9.1959704752442342	0	4
-4.0357603704663756	9.4828865980867398	0	4
-4.7542114154255657	11.02360983604904	0	4
-5.3886268663512196	10.727777052830559	0	4
-4.6671222582142704	9.2988155066589506	0	4
-4.1233375859922798	9.5523864637033729	0	4
-4.7572649786033283	10.911848144258339	0	4
-5.3010496508253189	10.658277187213921	0	4
-5.8750372115744627	8.2160780036837124	0	4
-6.1945405099169202	8.2365143034537489	0	4
-5.7112068027166636	8.3307932909539222	0	4
-5.6211340789146256	8.6380178088994839	0	4
-6.5962140207114031	10.03057628419077	0	4
-7.1696204517136977	9.6290727787450354	0	4
-6.2109405513375746	8.3471083297002018	0	4
-5.7194493247641791	8.6912541915108292	0	4
-6.5798139792907477	9.9199822579443175	0	4
-7.0713052058641441	9.5758363961336901	0	4
-7.2124891681027847	7.0710678118654764	0	4
-7.5306872196367323	7.0357124728061482	0	4
-7.0710678118654764	7.2124891681027847	0	4
-7.0357124728061482	7.5306872196367314	0	4
-8.2377940008232802	8.7327687476538625	0	4
-8.7327687476538625	8.2377940008232802	0	4
-7.5660425586960596	7.1417784899841301	0	4
-7.141778489984131	7.5660425586960587	0	4
-8.2024386617639529	8.6267027304758805	0	4
-8.6267027304758805	8.2024386617639529	0	4
-8.3307932909539204	5.711206802716668	0	4
-8.6380178088994803	5.6211340789146291	0	4
-8.2160780036837107	5.8750372115744662	0	4
-8.2365143034537489	6.1945405099169228	0	4
-9.6290727787450336	7.1696204517137021	0	4
-10.03057628419077	6.5962140207114084	0	4
-8.6912541915108292	5.7194493247641844	0	4
-8.3471083297002	6.2109405513375791	0	4
-9.5758363961336883	7.0713052058641477	0	4
-9.919982257944314	6.5798139792907531	0	4
-9.1959704752442359	4.177813664877398	0	4
-9.4828865980867398	4.0357603704663756	0	4
-9.1114468228960952	4.3590752222847291	0	4
-9.1870538148682499	4.6701758213920312	0	4
-10.727777052830559	5.3886268663512196	0	4
-11.023609836049051	4.7542114154255648	0	4
-9.5523864637033711	4.1233375859922781	0	4
-9.2988155066589506	4.6671222582142686	0	4
-10.65827718721393	5.301049650825318	0	4
-10.911848144258339	4.7572649786033274	0	4
-9.7817327500298408	2.517479772906555	0	4
-10.03962267656329	2.3277621253547909	0	4
-9.7299689410093357	2.7106649381643679	0	4
-9.85844934499152	3.003910203757139	0	4
-11.50052324968294	3.4439025804314252	0	4
-11.6816965812547	2.767754502029077	0	4
-10.12327430693707	2.401940321179497	0	4
-9.967982879875553	2.981495816952938	0	4
-11.416871619309161	3.36972438460672	0	4
-11.572163046370671	2.790168888833279	0	4
-10.07028202500139	0.78065353194217235	0	4
-10.291309900306659	0.54903600596876778	0	4
-10.05285087645187	0.97989247156052162	0	4
-10.2303008803833	1.24637229463299	0	4
-11.92383186713927	1.3945370573040079	0	4
-11.98484088706263	0.69720076863978653	0	4
-10.38657158297845	0.60756131514812095	0	4
-10.334278137329861	1.205278134003168	0	4
-11.82857018446748	1.336011748124655	0	4
-11.880863630116069	0.73829492926960816	0	4
-10.05285087645187	-0.97989247156052084	0	4
-10.2303008803833	-1.2463722946329889	0	4
-10.070282025001401	-0.78065353194217169	0	4
-10.291309900306659	-0.54903600596876689	0	4
-11.98484088706263	-0.69720076863978575	0	4
-11.92383186713927	-1.394537057304007	0	4
-10.334278137329861	-1.2052781340031671	0	4
-10.38657158297845	-0.60756131514811995	0	4
-11.880863630116069	-0.73829492926960705	0	4
-11.82857018446748	-1.3360117481246541	0	4
-9.7299689410093375	-2.7106649381643679	0	4
-9.8584493449915218	-3.003910203757139	0	4
-9.781732750029839	-2.5174797729065541	0	4
-10.03962267656329	-2.3277621253547909	0	4
-11.6816965812547	-2.767754502029077	0	4
-11.50052324968294	-3.4439025804314238	0	4
-9.9679828798755548	-2.981495816952938	0	4
-10.123274306937059	-2.401940321179497	0	4
-11.572163046370671	-2.7901688888332781	0	4
-11.416871619309161	-3.3697243846067191	0	4
-9.1114468228960934	-4.3590752222847282	0	4
-9.1870538148682517	-4.6701758213920312	0	4
-9.1959704752442342	-4.1778136648773989	0	4
-9.4828865980867398	-4.0357603704663756	0	4
-11.02360983604904	-4.7542114154255648	0	4
-10.727777052830559	-5.3886268663512196	0	4
-9.2988155066589506	-4.6671222582142686	0	4
-9.5523864637033729	-4.1233375859922781	0	4
-10.911848144258339	-4.7572649786033274	0	4
-10.658277187213921	-5.301049650825318	0	4
-8.2160780036837107	-5.8750372115744662	0	4
-8.2365143034537471	-6.1945405099169228	0	4
-8.3307932909539204	-5.7112068027166671	0	4
-8.6380178088994803	-5.6211340789146291	0	4
-10.03057628419077	-6.5962140207114066	0	4
-9.6290727787450354	-7.1696204517137021	0	4
-8.3471083297002	-6.2109405513375782	0	4
-8.6912541915108275	-5.7194493247641827	0	4
-9.9199822579443158	-6.5798139792907513	0	4
-9.5758363961336865	-7.0713052058641477	0	4
-7.0710678118654764	-7.212489168102783	0	4
-7.0357124728061482	-7.5306872196367296	0	4
-7.2124891681027847	-7.0710678118654737	0	4
-7.5306872196367314	-7.0357124728061482	0	4
-8.7327687476538625	-8.2377940008232784	0	4
-8.2377940008232802	-8.7327687476538607	0	4
-7.1417784899841301	-7.5660425586960578	0	4
-7.5660425586960587	-7.1417784899841292	0	4
-8.6267027304758805	-8.2024386617639511	0	4
-8.2024386617639529	-8.6267027304758788	0	4
-5.711206802716668	-8.3307932909539204	0	4
-5.6211340789146291	-8.6380178088994803	0	4
-5.8750372115744662	-8.2160780036837107	0	4
-6.1945405099169228	-8.2365143034537489	0	4
-7.1696204517137021	-9.6290727787450336	0	4
-6.5962140207114084	-10.03057628419077	0	4
-5.7194493247641844	-8.6912541915108292	0	4
-6.2109405513375791	-8.3471083297002	0	4
-7.0713052058641477	-9.5758363961336883	0	4
-6.5798139792907531	-9.919982257944314	0	4
-4.1778136648774051	-9.1959704752442324	0	4
-4.0357603704663818	-9.4828865980867381	0	4
-4.3590752222847344	-9.1114468228960916	0	4
-4.6701758213920366	-9.1870538148682463	0	4
-5.3886268663512267	-10.72777705283055	0	4
-4.754211415425571	-11.02360983604904	0	4
-4.1233375859922834	-9.5523864637033675	0	4
-4.6671222582142748	-9.2988155066589471	0	4
-5.3010496508253233	-10.658277187213921	0	4
-4.7572649786033354	-10.911848144258339	0	4
-2.517479772906559	-9.7817327500298408	0	4
-2.3277621253547971	-10.03962267656329	0	4
-2.7106649381643728	-9.7299689410093357	0	4
-3.0039102037571448	-9.85844934499152	0	4
-3.4439025804314309	-11.50052324968294	0	4
-2.7677545020290828	-11.6816965812547	0	4
-2.4019403211795018	-10.12327430693707	0	4
-2.9814958169529429	-9.9679828798755512	0	4
-3.3697243846067271	-11.416871619309161	0	4
-2.7901688888332852	-11.572163046370671	0	4
-0.7806535319421728	-10.07028202500139	0	4
-0.54903600596876845	-10.291309900306659	0	4
-0.97989247156052206	-10.05285087645187	0	4
-1.24637229463299	-10.2303008803833	0	4
-1.394537057304009	-11.92383186713927	0	4
-0.69720076863978742	-11.98484088706263	0	4
-0.60756131514812139	-10.38657158297845	0	4
-1.2052781340031691	-10.334278137329861	0	4
-1.336011748124655	-11.82857018446748	0	4
-0.7382949292696086	-11.880863630116069	0	4
0.97989247156052017	-10.05285087645187	0	4
1.246372294632988	-10.2303008803833	0	4
0.78065353194217102	-10.070282025001401	0	4
0.54903600596876634	-10.291309900306659	0	4
0.69720076863978497	-11.98484088706263	0	4
1.394537057304007	-11.92383186713927	0	4
1.2052781340031671	-10.334278137329861	0	4
0.6075613151481194	-10.38657158297845	0	4
0.73829492926960638	-11.880863630116069	0	4
1.3360117481246541	-11.82857018446748	0	4
2.710664938164363	-9.7299689410093411	0	4
3.0039102037571341	-9.8584493449915218	0	4
2.5174797729065488	-9.7817327500298408	0	4
2.327762125354786	-10.03962267656329	0	4
2.7677545020290708	-11.6816965812547	0	4
3.4439025804314189	-11.50052324968294	0	4
2.9814958169529331	-9.9679828798755565	0	4
2.4019403211794921	-10.12327430693707	0	4
2.7901688888332719	-11.572163046370671	0	4
3.3697243846067129	-11.416871619309161	0	4
4.3590752222847238	-9.111446822896097	0	4
4.6701758213920268	-9.1870538148682535	0	4
4.1778136648773936	-9.1959704752442377	0	4
4.0357603704663711	-9.4828865980867434	0	4
4.7542114154255586	-11.023609836049051	0	4
5.3886268663512134	-10.727777052830559	0	4
4.6671222582142633	-9.2988155066589506	0	4
4.1233375859922736	-9.5523864637033729	0	4
4.7572649786033212	-10.91184814425835	0	4
5.3010496508253118	-10.65827718721393	0	4
5.8750372115744662	-8.2160780036837107	0	4
6.1945405099169228	-8.2365143034537471	0	4
5.7112068027166671	-8.3307932909539204	0	4
5.6211340789146291	-8.6380178088994803	0	4
6.5962140207114066	-10.03057628419077	0	4
7.1696204517137021	-9.6290727787450354	0	4
6.2109405513375782	-8.3471083297002	0	4
5.7194493247641827	-8.6912541915108275	0	4
6.5798139792907513	-9.9199822579443158	0	4
7.0713052058641477	-9.5758363961336865	0	4
7.212489168102783	-7.0710678118654764	0	4
7.5306872196367296	-7.0357124728061491	0	4
7.0710678118654737	-7.2124891681027874	0	4
7.0357124728061482	-7.5306872196367314	0	4
8.2377940008232784	-8.7327687476538642	0	4
8.7327687476538607	-8.2377940008232819	0	4
7.5660425586960578	-7.1417784899841319	0	4
7.1417784899841292	-7.5660425586960596	0	4
8.2024386617639511	-8.6267027304758805	0	4
8.6267027304758788	-8.2024386617639529	0	4
8.3307932909539186	-5.7112068027166689	0	4
8.6380178088994786	-5.6211340789146318	0	4
8.2160780036837107	-5.8750372115744671	0	4
8.2365143034537471	-6.1945405099169246	0	4
9.6290727787450336	-7.169620451713703	0	4
10.03057628419077	-6.5962140207114093	0	4
8.6912541915108275	-5.7194493247641853	0	4
8.3471083297001982	-6.2109405513375799	0	4
9.5758363961336865	-7.0713052058641486	0	4
9.9199822579443122	-6.5798139792907548	0	4
9.1959704752442324	-4.1778136648774051	0	4
9.4828865980867381	-4.0357603704663818	0	4
9.1114468228960916	-4.3590752222847344	0	4
9.1870538148682463	-4.6701758213920366	0	4
10.72777705283055	-5.3886268663512267	0	4
11.02360983604904	-4.754211415425571	0	4
9.5523864637033675	-4.1233375859922834	0	4
9.2988155066589471	-4.6671222582142748	0	4
10.658277187213921	-5.3010496508253233	0	4
10.911848144258339	-4.7572649786033354	0	4
9.7817327500298425	-2.5174797729065519	0	4
10.03962267656329	-2.3277621253547891	0	4
9.7299689410093375	-2.7106649381643648	0	4
9.8584493449915218	-3.0039102037571368	0	4
11.50052324968294	-3.4439025804314212	0	4
11.6816965812547	-2.767754502029073	0	4
10.12327430693707	-2.4019403211794939	0	4
9.967982879875553	-2.9814958169529349	0	4
11.416871619309161	-3.3697243846067169	0	4
11.572163046370671	-2.790168888833275	0	4
10.07028202500139	-0.78065353194218268	0	4
10.291309900306659	-0.54903600596877822	0	4
10.05285087645186	-0.9798924715605315	0	4
10.2303008803833	-1.246372294633	0	4
11.92383186713927	-1.3945370573040199	0	4
11.984840887062621	-0.69720076863979852	0	4
10.38657158297845	-0.60756131514813116	0	4
10.334278137329861	-1.205278134003178	0	4
11.82857018446748	-1.3360117481246669	0	4
11.880863630116069	-0.73829492926962015	0	4
-0.97113331832488048	9.9527332968405879	0	4
-2.6846536208961629	9.6328933833926094	0	4
-2.49146845563835	9.6846571924131144	0	4
-4.3166020816967956	9.0203628789694985	0	4
-4.1353405242894663	9.1048865313176393	0	4
-5.8173927725511199	8.1337532129927581	0	4
-5.6535623636933199	8.2484685002629661	0	4
-7.1414249277542616	7.0000035715169506	0	4
-7.0000035715169506	7.1414249277542599	0	4
-8.2484685002629643	5.6535623636933243	0	4
-8.1337532129927546	5.8173927725511234	0	4
-9.1048865313176393	4.1353405242894654	0	4
-9.0203628789694985	4.3166020816967956	0	4
-9.6846571924131162	2.4914684556383522	0	4
-9.6328933833926094	2.684653620896166	0	4
-9.9701644453901199	0.77189437870653166	0	4
-9.9527332968405879	0.9711333183248807	0	4
-9.9527332968405879	-0.97113331832487992	0	4
-9.9701644453901181	-0.77189437870653077	0	4
-9.6328933833926094	-2.6846536208961651	0	4
-9.6846571924131126	-2.4914684556383508	0	4
-9.0203628789694985	-4.3166020816967956	0	4
-9.1048865313176393	-4.1353405242894663	0	4
-8.1337532129927563	-5.8173927725511234	0	4
-8.2484685002629661	-5.6535623636933234	0	4
-7.0000035715169524	-7.1414249277542616	0	4
-7.1414249277542599	-7.0000035715169506	0	4
-5.6535623636933243	-8.2484685002629643	0	4
-5.8173927725511234	-8.1337532129927546	0	4
-4.1353405242894716	-9.1048865313176357	0	4
-4.3166020816968018	-9.0203628789694967	0	4
-2.4914684556383562	-9.6846571924131144	0	4
-2.68465362089617	-9.6328933833926094	0	4
-0.7718943787065321	-9.9701644453901199	0	4
-0.97113331832488115	-9.9527332968405879	0	4
0.77189437870653022	-9.9701644453901181	0	4
9.9527332968405879	0.97113331832488115	0	4
9.9701644453901181	0.77189437870653199	0	4
9.6328933833926094	2.6846536208961629	0	4
9.6846571924131144	2.49146845563835	0	4
9.0203628789694985	4.3166020816967956	0	4
9.1048865313176393	4.1353405242894663	0	4
8.1337532129927563	5.8173927725511199	0	4
8.2484685002629661	5.6535623636933208	0	4
7.0000035715169524	7.1414249277542616	0	4
7.1414249277542599	7.0000035715169506	0	4
5.6535623636933234	8.2484685002629661	0	4
5.8173927725511216	8.1337532129927563	0	4
4.1353405242894681	9.1048865313176393	0	4
4.3166020816967992	9.0203628789694985	0	4
2.4914684556383508	9.6846571924131162	0	4
2.684653620896166	9.6328933833926111	0	4
0.77189437870653299	9.9701644453901181	0	4
0.97113331832488203	9.9527332968405879	0	4
-0.77189437870653144	9.9701644453901181	0	4
0.97113331832487926	-9.9527332968405879	0	4
2.6846536208961589	-9.6328933833926094	0	4
2.491468455638346	-9.6846571924131144	0	4
4.3166020816967912	-9.0203628789695003	0	4
4.135340524289461	-9.104886531317641	0	4
5.8173927725511234	-8.1337532129927563	0	4
5.6535623636933234	-8.2484685002629661	0	4
7.1414249277542607	-7.0000035715169524	0	4
7.0000035715169489	-7.1414249277542599	0	4
8.2484685002629625	-5.6535623636933252	0	4
8.1337532129927546	-5.8173927725511252	0	4
9.1048865313176357	-4.1353405242894716	0	4
9.0203628789694967	-4.3166020816968018	0	4
9.6846571924131162	-2.4914684556383491	0	4
9.6328933833926111	-2.684653620896162	0	4
9.9701644453901181	-0.77189437870654165	0	4
9.9527332968405862	-0.97113331832489069	0	4
-4.2685677435513819e-015	13.5	0	4
-13.499999999999998	1.6532731788489269e-015	0	4
-2.4799097682733899e-015	-13.499999999999998	0	4
13.499999999999998	-3.3065463576978537e-015	0	4
9.5459415460183923	9.5459415460183976	0	4
1.6653345369377348e-015	2.3075610375299265	0	5
-1.6653345369377348e-015	-2.3075610375299265	0	5
-4.3393451250240425	8.9705801866952619	0	5
-8.0807775436469171	5.8311456241541073	0	5
-8.98294625795989	4.3136876946070917	0	5
-9.0694582390376475	4.1286986146184903	0	5
-4.1364205421741831	9.0659390080829052	0	5
-9.5979814870296511	2.6795477929375093	0	5
-2.6882808379477034	9.595539126923633	0	5
-9.6510730222186591	2.4815347105780177	0	5
-2.4910795098918261	9.648613779989164	0	5
-9.9178393219524477	0.96834300944155283	0	5
-0.97216744654796461	9.9174651729094307	0	5
-9.9359449700397846	0.7604094636060994	0	5
-0.76794337950736757	9.9353655174769671	0	5
-9.9359449700397864	-0.76040946360609318	0	5
0.97650160222319338	9.9170393576336693	0	5
0.97216744654796949	9.9174651729094379	0	5
4.3393451250240567	8.9705801866952672	0	5
8.9829462579598847	4.3136876946070819	0	5
4.1364205421741955	9.0659390080829017	0	5
9.0694582390376475	4.1286986146184788	0	5
2.6882808379477154	9.5955391269236454	0	5
9.5979814870296636	2.6795477929375	0	5
2.4910795098918306	9.6486137799891551	0	5
9.6510730222186627	2.4815347105780048	0	5
9.9178393219524335	0.96834300944154261	0	5
0.76794337950738045	9.9353655174769724	0	5
9.9359449700397633	0.76040946360608697	0	5
8.9829462579598918	-4.3136876946070863	0	5
4.3393451250240442	-8.9705801866952584	0	5
9.0694582390376457	-4.1286986146184903	0	5
4.1364205421741786	-9.0659390080828821	0	5
9.5979814870296494	-2.6795477929375053	0	5
2.6882808379477034	-9.5955391269236436	0	5
9.6510730222186645	-2.4815347105780048	0	5
2.4910795098918208	-9.6486137799891605	0	5
9.9178393219524423	-0.96834300944155638	0	5
0.97216744654796283	-9.9174651729094325	0	5
9.9359449700397597	-0.76040946360609496	0	5
0.76794337950737113	-9.9353655174769813	0	5
-4.3393451250240567	-8.9705801866952672	0	5
-8.9829462579598918	-4.3136876946070828	0	5
-4.1364205421741911	-9.0659390080828874	0	5
-9.069458239037651	-4.1286986146184805	0	5
-2.6882808379477119	-9.5955391269236383	0	5
-9.5979814870296689	-2.6795477929374951	0	5
-2.4910795098918337	-9.6486137799891551	0	5
-9.6510730222186556	-2.4815347105780048	0	5
-0.9721674465479726	-9.9174651729094432	0	5
-9.917839321952437	-0.96834300944153906	0	5
-0.76794337950738045	-9.9353655174769724	0	5
[NumSegments] = 399
0	1	-1	0	0	4
2	3	-1	0	0	4
3	4	-1	0	0	4
4	5	-1	0	0	4
5	1	-1	0	0	4
6	7	-1	0	0	4
7	8	-1	0	0	4
8	9	-1	0	0	4
9	6	-1	0	0	4
10	11	-1	0	0	4
12	13	-1	0	0	4
13	14	-1	0	0	4
14	15	-1	0	0	4
15	11	-1	0	0	4
16	17	-1	0	0	4
17	18	-1	0	0	4
18	19	-1	0	0	4
19	16	-1	0	0	4
20	21	-1	0	0	4
22	23	-1	0	0	4
23	24	-1	0	0	4
24	25	-1	0	0	4
25	21	-1	0	0	4
26	27	-1	0	0	4
27	28	-1	0	0	4
28	29	-1	0	0	4
29	26	-1	0	0	4
30	31	-1	0	0	4
32	33	-1	0	0	4
33	34	-1	0	0	4
34	35	-1	0	0	4
35	31	-1	0	0	4
36	37	-1	0	0	4
37	38	-1	0	0	4
38	39	-1	0	0	4
39	36	-1	0	0	4
40	41	-1	0	0	4
42	43	-1	0	0	4
43	44	-1	0	0	4
44	45	-1	0	0	4
46	41	-1	0	0	4
47	48	-1	0	0	4
49	50	-1	0	0	4
50	51	-1	0	0	4
52	47	-1	0	0	4
53	54	-1	0	0	4
55	56	-1	0	0	4
56	57	-1	0	0	4
57	58	-1	0	0	4
58	54	-1	0	0	4
59	60	-1	0	0	4
60	61	-1	0	0	4
61	62	-1	0	0	4
62	59	-1	0	0	4
63	64	-1	0	0	4
65	66	-1	0	0	4
66	67	-1	0	0	4
67	68	-1	0	0	4
68	64	-1	0	0	4
69	70	-1	0	0	4
70	71	-1	0	0	4
71	72	-1	0	0	4
72	69	-1	0	0	4
73	74	-1	0	0	4
75	76	-1	0	0	4
76	77	-1	0	0	4
77	78	-1	0	0	4
78	74	-1	0	0	4
79	80	-1	0	0	4
80	81	-1	0	0	4
81	82	-1	0	0	4
82	79	-1	0	0	4
83	84	-1	0	0	4
85	86	-1	0	0	4
86	87	-1	0	0	4
87	88	-1	0	0	4
88	84	-1	0	0	4
89	90	-1	0	0	4
90	91	-1	0	0	4
91	92	-1	0	0	4
92	89	-1	0	0	4
93	94	-1	0	0	4
95	96	-1	0	0	4
96	97	-1	0	0	4
97	98	-1	0	0	4
98	94	-1	0	0	4
99	100	-1	0	0	4
100	101	-1	0	0	4
101	102	-1	0	0	4
102	99	-1	0	0	4
103	104	-1	0	0	4
105	106	-1	0	0	4
106	107	-1	0	0	4
107	108	-1	0	0	4
108	104	-1	0	0	4
109	110	-1	0	0	4
110	111	-1	0	0	4
111	112	-1	0	0	4
112	109	-1	0	0	4
113	114	-1	0	0	4
115	116	-1	0	0	4
116	117	-1	0	0	4
117	118	-1	0	0	4
118	114	-1	0	0	4
119	120	-1	0	0	4
120	121	-1	0	0	4
121	122	-1	0	0	4
122	119	-1	0	0	4
123	124	-1	0	0	4
125	126	-1	0	0	4
126	127	-1	0	0	4
127	128	-1	0	0	4
128	124	-1	0	0	4
129	130	-1	0	0	4
130	131	-1	0	0	4
131	132	-1	0	0	4
132	129	-1	0	0	4
133	134	-1	0	0	4
135	136	-1	0	0	4
136	137	-1	0	0	4
137	138	-1	0	0	4
138	134	-1	0	0	4
139	140	-1	0	0	4
140	141	-1	0	0	4
141	142	-1	0	0	4
142	139	-1	0	0	4
143	144	-1	0	0	4
145	146	-1	0	0	4
146	147	-1	0	0	4
147	148	-1	0	0	4
148	144	-1	0	0	4
149	150	-1	0	0	4
150	151	-1	0	0	4
151	152	-1	0	0	4
152	149	-1	0	0	4
153	154	-1	0	0	4
155	156	-1	0	0	4
156	157	-1	0	0	4
157	158	-1	0	0	4
158	154	-1	0	0	4
159	160	-1	0	0	4
160	161	-1	0	0	4
161	162	-1	0	0	4
162	159	-1	0	0	4
163	164	-1	0	0	4
165	166	-1	0	0	4
166	167	-1	0	0	4
167	168	-1	0	0	4
168	164	-1	0	0	4
169	170	-1	0	0	4
170	171	-1	0	0	4
171	172	-1	0	0	4
172	169	-1	0	0	4
173	174	-1	0	0	4
175	176	-1	0	0	4
176	177	-1	0	0	4
177	178	-1	0	0	4
178	174	-1	0	0	4
179	180	-1	0	0	4
180	181	-1	0	0	4
181	182	-1	0	0	4
182	179	-1	0	0	4
183	184	-1	0	0	4
185	186	-1	0	0	4
186	187	-1	0	0	4
187	188	-1	0	0	4
188	184	-1	0	0	4
189	190	-1	0	0	4
190	191	-1	0	0	4
191	192	-1	0	0	4
192	189	-1	0	0	4
193	194	-1	0	0	4
195	196	-1	0	0	4
196	197	-1	0	0	4
197	198	-1	0	0	4
198	194	-1	0	0	4
199	200	-1	0	0	4
200	201	-1	0	0	4
201	202	-1	0	0	4
202	199	-1	0	0	4
203	204	-1	0	0	4
205	206	-1	0	0	4
206	207	-1	0	0	4
207	208	-1	0	0	4
208	204	-1	0	0	4
209	210	-1	0	0	4
210	211	-1	0	0	4
211	212	-1	0	0	4
212	209	-1	0	0	4
213	214	-1	0	0	4
215	216	-1	0	0	4
216	217	-1	0	0	4
217	218	-1	0	0	4
218	214	-1	0	0	4
219	220	-1	0	0	4
220	221	-1	0	0	4
221	222	-1	0	0	4
222	219	-1	0	0	4
223	224	-1	0	0	4
225	226	-1	0	0	4
226	227	-1	0	0	4
227	228	-1	0	0	4
228	224	-1	0	0	4
229	230	-1	0	0	4
230	231	-1	0	0	4
231	232	-1	0	0	4
232	229	-1	0	0	4